Version 4
SHEET 1 149556 120332
WIRE -427376 -275488 -427376 -275520
WIRE -427856 -275472 -427888 -275472
WIRE -427808 -275472 -427856 -275472
WIRE -427712 -275472 -427744 -275472
WIRE -427664 -275472 -427712 -275472
WIRE -427568 -275472 -427584 -275472
WIRE -427408 -275472 -427568 -275472
WIRE -429040 -275456 -429040 -275504
WIRE -427248 -275456 -427344 -275456
WIRE -427184 -275456 -427248 -275456
WIRE -427856 -275440 -427856 -275472
WIRE -427712 -275440 -427712 -275472
WIRE -427568 -275440 -427568 -275472
WIRE -427408 -275440 -427488 -275440
WIRE -426800 -275440 -426800 -275488
WIRE -426704 -275440 -426704 -275488
WIRE -427376 -275392 -427376 -275424
WIRE -429040 -275328 -429040 -275376
WIRE -427856 -275328 -427856 -275360
WIRE -427712 -275328 -427712 -275360
WIRE -427568 -275328 -427568 -275376
WIRE -426800 -275328 -426800 -275376
WIRE -426704 -275328 -426704 -275360
WIRE -426704 -275328 -426800 -275328
WIRE -426704 -275296 -426704 -275328
WIRE -427488 -275264 -427488 -275440
WIRE -427408 -275264 -427488 -275264
WIRE -427248 -275264 -427248 -275456
WIRE -427248 -275264 -427344 -275264
WIRE -426704 -275184 -426704 -275216
WIRE -426576 -275184 -426704 -275184
WIRE -427488 -275152 -427488 -275264
WIRE -427408 -275152 -427488 -275152
WIRE -427248 -275152 -427248 -275264
WIRE -427248 -275152 -427328 -275152
WIRE -426704 -275136 -426704 -275184
WIRE -426576 -275136 -426576 -275184
WIRE -427488 -275088 -427488 -275152
WIRE -426912 -274992 -426928 -274992
WIRE -426816 -274992 -426848 -274992
WIRE -426704 -274992 -426704 -275072
WIRE -426704 -274992 -426816 -274992
WIRE -426576 -274992 -426576 -275072
WIRE -426464 -274992 -426576 -274992
WIRE -426368 -274992 -426400 -274992
WIRE -426288 -274992 -426368 -274992
WIRE -427488 -274976 -427488 -275008
WIRE -426816 -274960 -426816 -274992
WIRE -426368 -274960 -426368 -274992
WIRE -426704 -274912 -426704 -274992
WIRE -426576 -274912 -426576 -274992
WIRE -426816 -274848 -426816 -274880
WIRE -426368 -274848 -426368 -274880
WIRE -426704 -274800 -426704 -274848
WIRE -426576 -274800 -426576 -274848
WIRE -426576 -274800 -426704 -274800
WIRE -426704 -274768 -426704 -274800
WIRE -427424 -274752 -427472 -274752
WIRE -427424 -274720 -427424 -274752
WIRE -426704 -274656 -426704 -274688
WIRE -426704 -274656 -426800 -274656
WIRE -427888 -274640 -427888 -274688
WIRE -427760 -274640 -427760 -274688
WIRE -426704 -274624 -426704 -274656
WIRE -427424 -274608 -427424 -274640
WIRE -427312 -274608 -427424 -274608
WIRE -426800 -274608 -426800 -274656
WIRE -427424 -274576 -427424 -274608
WIRE -427888 -274512 -427888 -274560
WIRE -427760 -274512 -427760 -274560
WIRE -426800 -274512 -426800 -274544
WIRE -426704 -274512 -426704 -274544
WIRE -427424 -274464 -427424 -274496
FLAG -427888 -275472 in
IOPIN -427888 -275472 In
FLAG -427376 -275520 0
FLAG -427376 -275392 vcc
IOPIN -427376 -275392 In
FLAG -427568 -275328 vref
IOPIN -427568 -275328 In
FLAG -427712 -275328 vref
IOPIN -427712 -275328 In
FLAG -427856 -275328 0
FLAG -427488 -274976 0
FLAG -427184 -275456 a
IOPIN -427184 -275456 Out
FLAG -426928 -274992 a
IOPIN -426928 -274992 In
FLAG -426704 -275488 vcc
IOPIN -426704 -275488 In
FLAG -426704 -274512 0
FLAG -426800 -274512 vref
IOPIN -426800 -274512 In
FLAG -426288 -274992 b
IOPIN -426288 -274992 Out
FLAG -426800 -275488 vref
IOPIN -426800 -275488 In
FLAG -426368 -274848 0
FLAG -426816 -274848 0
FLAG -427312 -274608 out
IOPIN -427312 -274608 Out
FLAG -427472 -274752 b
IOPIN -427472 -274752 In
FLAG -427424 -274464 0
FLAG -427888 -274512 0
FLAG -427760 -274512 0
FLAG -427888 -274688 vcc
IOPIN -427888 -274688 Out
FLAG -427760 -274688 vref
IOPIN -427760 -274688 Out
FLAG -429040 -275328 0
FLAG -429040 -275504 in
IOPIN -429040 -275504 Out
SYMBOL res -427872 -275456 R0
SYMATTR InstName R1
SYMATTR Value 10Meg
SYMBOL cap -427744 -275488 R90
WINDOW 0 0 32 VBottom 2
WINDOW 3 32 32 VTop 2
SYMATTR InstName C1
SYMATTR Value 1µ
SYMBOL cap -427584 -275440 R0
SYMATTR InstName C2
SYMATTR Value 47n
SYMBOL res -427728 -275456 R0
SYMATTR InstName R2
SYMATTR Value 1k
SYMBOL res -427568 -275488 R90
WINDOW 0 0 56 VBottom 2
WINDOW 3 32 56 VTop 2
SYMATTR InstName R3
SYMATTR Value 470
SYMBOL OpAmps\\opamp2 -427376 -275392 M180
SYMATTR InstName U1
SYMBOL cap -427344 -275280 R90
WINDOW 0 0 32 VBottom 2
WINDOW 3 32 32 VTop 2
SYMATTR InstName C3
SYMATTR Value 220p
SYMBOL res -427312 -275168 R90
WINDOW 0 0 56 VBottom 2
WINDOW 3 32 56 VTop 2
SYMATTR InstName R4
SYMATTR Value {1Meg * drive}
SYMBOL res -427504 -275104 R0
SYMATTR InstName R5
SYMATTR Value 100
SYMBOL diode -426720 -275136 R0
SYMATTR InstName D1
SYMATTR Value 1N4148
SYMBOL diode -426720 -274912 R0
SYMATTR InstName D2
SYMATTR Value 1N4148
SYMBOL diode -426592 -275136 R0
SYMATTR InstName D3
SYMATTR Value 1N4148
SYMBOL diode -426592 -274912 R0
SYMATTR InstName D4
SYMATTR Value 1N4148
SYMBOL polcap -426912 -274976 R270
WINDOW 0 32 32 VTop 2
WINDOW 3 0 32 VBottom 2
SYMATTR InstName C4
SYMATTR Value 10µ
SYMBOL res -426832 -274976 R0
SYMATTR InstName R6
SYMATTR Value 10k
SYMBOL res -426720 -275456 R0
SYMATTR InstName R7
SYMATTR Value 10k
SYMBOL res -426720 -275312 R0
SYMATTR InstName R8
SYMATTR Value 10k
SYMBOL res -426720 -274784 R0
SYMATTR InstName R9
SYMATTR Value 10k
SYMBOL res -426720 -274640 R0
SYMATTR InstName R10
SYMATTR Value 10k
SYMBOL cap -426816 -275440 R0
SYMATTR InstName C5
SYMATTR Value 10µ
SYMBOL cap -426816 -274608 R0
SYMATTR InstName C6
SYMATTR Value 10µ
SYMBOL polcap -426464 -274976 R270
WINDOW 0 32 32 VTop 2
WINDOW 3 0 32 VBottom 2
SYMATTR InstName C7
SYMATTR Value 10µ
SYMBOL res -426384 -274976 R0
SYMATTR InstName R11
SYMATTR Value 10k
SYMBOL res -427440 -274736 R0
SYMATTR InstName R12
SYMATTR Value {10k-10k*(vol/100)}
SYMBOL res -427440 -274592 R0
SYMATTR InstName R13
SYMATTR Value {10k*(vol/100)}
SYMBOL voltage -427888 -274656 R0
SYMATTR InstName V3
SYMATTR Value 9
SYMBOL voltage -427760 -274656 R0
SYMATTR InstName V2
SYMATTR Value 4.5
SYMBOL voltage -429040 -275472 R0
WINDOW 123 0 0 Left 0
WINDOW 39 0 0 Left 0
SYMATTR InstName V1
SYMATTR Value SINE(0 1 1k)
TEXT -428736 -275544 Left 2 !.param drive 100
TEXT -428736 -275488 Left 2 !.param vol 50
TEXT -428752 -275304 Left 2 !.tran 0 1 0 1u
TEXT -428752 -275256 Left 2 !.opt plotwinsize=0
TEXT -428752 -275208 Left 2 !.opt numdgt=15
TEXT -428736 -275616 Left 4 ;Parameters
TEXT -428752 -275384 Left 4 ;Simulation
TEXT -427880 -274816 Left 4 ;Power
TEXT -427824 -275624 Left 4 ;Bandlimit and Signal Boost
TEXT -427440 -274848 Left 4 ;Voltage Divider
TEXT -426808 -275624 Left 4 ;Clipping Stage
TEXT -429128 -275048 Left 6 ;Ultimate-Overdrive
TEXT -429120 -274968 Left 2 ;MIT License\n \nCopyright (c) 2021 Zhe Deng\n \nPermission is hereby granted, free of charge, to any person obtaining a copy\nof this software and associated documentation files (the "Software"), to deal\nin the Software without restriction, including without limitation the rights\nto use, copy, modify, merge, publish, distribute, sublicense, and/or sell\ncopies of the Software, and to permit persons to whom the Software is\nfurnished to do so, subject to the following conditions:\n \nThe above copyright notice and this permission notice shall be included in all\ncopies or substantial portions of the Software.\n \nTHE SOFTWARE IS PROVIDED "AS IS", WITHOUT WARRANTY OF ANY KIND, EXPRESS OR\nIMPLIED, INCLUDING BUT NOT LIMITED TO THE WARRANTIES OF MERCHANTABILITY,\nFITNESS FOR A PARTICULAR PURPOSE AND NONINFRINGEMENT. IN NO EVENT SHALL THE\nAUTHORS OR COPYRIGHT HOLDERS BE LIABLE FOR ANY CLAIM, DAMAGES OR OTHER\nLIABILITY, WHETHER IN AN ACTION OF CONTRACT, TORT OR OTHERWISE, ARISING FROM,\nOUT OF OR IN CONNECTION WITH THE SOFTWARE OR THE USE OR OTHER DEALINGS IN THE\nSOFTWARE.
TEXT -429032 -275616 Left 4 ;Input
RECTANGLE Normal -427968 -274912 -427104 -275584 2
RECTANGLE Normal -427104 -274400 -427552 -274816 2
RECTANGLE Normal -428496 -275152 -428784 -275360 2
RECTANGLE Normal -428496 -275440 -428784 -275584 2
RECTANGLE Normal -427664 -274448 -427968 -274784 2
RECTANGLE Normal -426208 -274400 -427008 -275584 2
RECTANGLE Normal -429120 -275584 -428832 -275264 2
