Version 4
SHEET 1 145328 116116
WIRE 144560 114928 144352 114928
WIRE 144672 114928 144560 114928
FLAG 144144 115904 0
FLAG 144144 116096 0
FLAG 144144 116016 vref
IOPIN 144144 116016 Out
FLAG 144144 115824 vcc
IOPIN 144144 115824 Out
FLAG 144352 115008 0
FLAG 144560 115008 0
SYMBOL voltage 144144 115808 R0
WINDOW 123 0 0 Left 0
WINDOW 39 0 0 Left 0
SYMATTR InstName VCC
SYMATTR Value 9
SYMBOL voltage 144144 116000 R0
WINDOW 123 0 0 Left 0
WINDOW 39 0 0 Left 0
SYMATTR InstName VREF
SYMATTR Value 4.5
SYMBOL res 144544 114912 R0
SYMATTR InstName R1
SYMATTR Value 10Meg
SYMBOL cap 144736 114912 R90
WINDOW 0 0 32 VBottom 2
WINDOW 3 32 32 VTop 2
SYMATTR InstName C1
SYMATTR Value 22n
SYMBOL voltage 144352 114912 R0
WINDOW 123 0 0 Left 0
WINDOW 39 0 0 Left 0
SYMATTR InstName IN
SYMATTR Value SINE(0 1 1k)
SYMBOL res 144768 114832 R0
SYMATTR InstName R2
SYMBOL res 144976 114912 R90
WINDOW 0 0 56 VBottom 2
WINDOW 3 32 56 VTop 2
SYMATTR InstName R3
SYMBOL cap 145024 114848 R0
SYMATTR InstName C2
SYMBOL Opamps\\opamp2 145216 114880 R0
SYMATTR InstName U1
