Version 4
SHEET 1 146536 116840
WIRE 146320 115584 146320 115504
WIRE 146240 115600 146240 115504
WIRE 145088 115648 145088 115568
WIRE 145328 115664 145328 115568
WIRE 146240 115696 146240 115664
WIRE 146320 115696 146320 115664
WIRE 146320 115696 146240 115696
WIRE 146320 115728 146320 115696
WIRE 145440 115792 145440 115712
WIRE 144864 115808 144784 115808
WIRE 144944 115808 144864 115808
WIRE 145088 115808 145088 115728
WIRE 145088 115808 145008 115808
WIRE 145168 115808 145088 115808
WIRE 145328 115808 145328 115728
WIRE 145328 115808 145248 115808
WIRE 145408 115808 145328 115808
WIRE 145552 115824 145472 115824
WIRE 145632 115824 145552 115824
WIRE 145776 115824 145696 115824
WIRE 145408 115840 145328 115840
WIRE 146320 115856 146320 115808
WIRE 146432 115856 146320 115856
WIRE 144864 115888 144864 115808
WIRE 145440 115888 145440 115856
WIRE 146320 115888 146320 115856
WIRE 146432 115888 146432 115856
WIRE 145776 115904 145776 115824
WIRE 145328 116000 145328 115840
WIRE 145408 116000 145328 116000
WIRE 145552 116000 145552 115824
WIRE 145552 116000 145472 116000
WIRE 145968 116000 145968 115920
WIRE 145776 116016 145776 115984
WIRE 145936 116016 145776 116016
WIRE 144864 116032 144864 115968
WIRE 146080 116032 146000 116032
WIRE 146160 116032 146080 116032
WIRE 146320 116032 146320 115952
WIRE 146320 116032 146240 116032
WIRE 145936 116048 145856 116048
WIRE 145776 116064 145776 116016
WIRE 145328 116096 145328 116000
WIRE 145408 116096 145328 116096
WIRE 145552 116096 145552 116000
WIRE 145552 116096 145488 116096
WIRE 145968 116096 145968 116064
WIRE 146320 116112 146320 116032
WIRE 146432 116112 146432 115952
WIRE 145328 116176 145328 116096
WIRE 145856 116208 145856 116048
WIRE 145872 116208 145856 116208
WIRE 145968 116208 145936 116208
WIRE 146320 116208 146320 116176
WIRE 146432 116208 146432 116176
WIRE 146432 116208 146320 116208
WIRE 145776 116224 145776 116144
WIRE 146320 116256 146320 116208
WIRE 145856 116320 145856 116208
WIRE 145872 116320 145856 116320
WIRE 145968 116320 145968 116208
WIRE 145968 116320 145952 116320
WIRE 145984 116320 145968 116320
WIRE 146080 116320 146080 116032
WIRE 146080 116320 146064 116320
WIRE 145328 116336 145328 116256
WIRE 146320 116368 146320 116336
WIRE 146320 116368 146240 116368
WIRE 145856 116400 145856 116320
WIRE 146240 116400 146240 116368
WIRE 146320 116400 146320 116368
WIRE 145856 116528 145856 116480
WIRE 145968 116528 145856 116528
WIRE 146240 116528 146240 116464
WIRE 146320 116528 146320 116480
WIRE 145856 116560 145856 116528
WIRE 145968 116576 145968 116528
WIRE 145856 116688 145856 116640
WIRE 145968 116688 145968 116640
WIRE 145968 116688 145856 116688
WIRE 145856 116736 145856 116688
FLAG 144144 115904 0
FLAG 144144 116096 0
FLAG 144144 116016 vref
IOPIN 144144 116016 Out
FLAG 144144 115824 vcc
IOPIN 144144 115824 Out
FLAG 144288 115824 in
IOPIN 144288 115824 Out
FLAG 144288 115904 0
FLAG 144864 116032 0
FLAG 145088 115568 vref
IOPIN 145088 115568 In
FLAG 144784 115808 in
IOPIN 144784 115808 In
FLAG 145328 115568 vref
IOPIN 145328 115568 In
FLAG 145328 116336 0
FLAG 145776 116224 0
FLAG 145968 115920 0
FLAG 145968 116096 vcc
IOPIN 145968 116096 In
FLAG 145440 115712 0
FLAG 145440 115888 vcc
IOPIN 145440 115888 In
FLAG 145856 116736 vref
IOPIN 145856 116736 In
FLAG 146320 116528 0
FLAG 146240 116528 vref
IOPIN 146240 116528 In
FLAG 146240 115504 vref
IOPIN 146240 115504 In
FLAG 146320 115504 vcc
IOPIN 146320 115504 In
SYMBOL voltage 144144 115808 R0
WINDOW 123 0 0 Left 0
WINDOW 39 0 0 Left 0
SYMATTR InstName VCC
SYMATTR Value 9
SYMBOL voltage 144144 116000 R0
WINDOW 123 0 0 Left 0
WINDOW 39 0 0 Left 0
SYMATTR InstName VREF
SYMATTR Value 4.5
SYMBOL voltage 144288 115808 R0
SYMATTR InstName V1
SYMBOL res 144848 115872 R0
SYMATTR InstName R1
SYMATTR Value 10Meg
SYMBOL cap 145008 115792 R90
WINDOW 0 0 32 VBottom 2
WINDOW 3 32 32 VTop 2
SYMATTR InstName C1
SYMBOL res 145072 115632 R0
SYMATTR InstName R2
SYMATTR Value 10k
SYMBOL res 145264 115792 R90
WINDOW 0 0 56 VBottom 2
WINDOW 3 32 56 VTop 2
SYMATTR InstName R3
SYMATTR Value 1k
SYMBOL cap 145312 115664 R0
SYMATTR InstName C2
SYMATTR Value 220p
SYMBOL Opamps\\opamp2 145440 115888 M180
SYMATTR InstName U1
SYMATTR Value OPA134
SYMBOL cap 145472 115984 R90
WINDOW 0 0 32 VBottom 2
WINDOW 3 32 32 VTop 2
SYMATTR InstName C3
SYMATTR Value 220p
SYMBOL res 145504 116080 R90
WINDOW 0 0 56 VBottom 2
WINDOW 3 32 56 VTop 2
SYMATTR InstName R4
SYMATTR Value 10k
SYMBOL res 145312 116160 R0
SYMATTR InstName R5
SYMATTR Value 4k7
SYMBOL cap 145696 115808 R90
WINDOW 0 0 32 VBottom 2
WINDOW 3 32 32 VTop 2
SYMATTR InstName C4
SYMATTR Value GAIN cap (hpf)
SYMBOL res 145760 115888 R0
SYMATTR InstName R6
SYMATTR Value GAIN 10k audio
SYMBOL res 145760 116048 R0
SYMATTR InstName R7
SYMBOL Opamps\\opamp2 145968 116096 M180
SYMATTR InstName U2
SYMATTR Value OPA134
SYMBOL cap 145936 116192 R90
WINDOW 0 0 32 VBottom 2
WINDOW 3 32 32 VTop 2
SYMATTR InstName C5
SYMATTR Value 220p
SYMBOL res 146080 116304 R90
WINDOW 0 0 56 VBottom 2
WINDOW 3 32 56 VTop 2
SYMATTR InstName R8
SYMATTR Value 100k
SYMBOL res 145968 116304 R90
WINDOW 0 0 56 VBottom 2
WINDOW 3 32 56 VTop 2
SYMATTR InstName R9
SYMATTR Value 1Meg
SYMBOL res 145840 116384 R0
SYMATTR InstName R10
SYMATTR Value 3k3
SYMBOL res 145840 116544 R0
SYMATTR InstName R11
SYMATTR Value 100k
SYMBOL cap 145952 116576 R0
SYMATTR InstName C6
SYMATTR Value 2µ2
SYMBOL res 146256 116016 R90
WINDOW 0 0 56 VBottom 2
WINDOW 3 32 56 VTop 2
SYMATTR InstName R12
SYMATTR Value 220
SYMBOL diode 146304 116112 R0
SYMATTR InstName D1
SYMATTR Value 1N4148
SYMBOL diode 146304 115888 R0
SYMATTR InstName D2
SYMATTR Value 1N4148
SYMBOL res 146304 116240 R0
SYMATTR InstName R13
SYMATTR Value 10k
SYMBOL res 146304 116384 R0
SYMATTR InstName R14
SYMATTR Value 13k
SYMBOL res 146304 115712 R0
SYMATTR InstName R15
SYMATTR Value 10k
SYMBOL res 146304 115568 R0
SYMATTR InstName R16
SYMATTR Value 13k
SYMBOL cap 146224 116400 R0
SYMATTR InstName C7
SYMATTR Value 2µ2
SYMBOL cap 146224 115600 R0
SYMATTR InstName C8
SYMATTR Value 2µ2
SYMBOL diode 146416 115888 R0
SYMATTR InstName D3
SYMATTR Value 1N4148
SYMBOL diode 146416 116112 R0
SYMATTR InstName D4
SYMATTR Value 1N4148
